MODEL 1
REMARK VINA RESULT:    -5.560      0.000      0.000
REMARK INTER + INTRA:          -8.919
REMARK INTER:                  -7.560
REMARK INTRA:                  -1.360
REMARK UNBOUND:                -0.759
REMARK  8 active torsions:
REMARK  status: ('A' for Active; 'I' for Inactive)
REMARK    1  A    between atoms: N_2  and  C_8 
REMARK    2  A    between atoms: N_2  and  C_10 
REMARK    3  A    between atoms: N_2  and  C_11 
REMARK    4  A    between atoms: N_3  and  C_7 
REMARK    5  A    between atoms: N_3  and  C_12 
REMARK    6  A    between atoms: C_5  and  C_6 
REMARK    7  A    between atoms: C_5  and  C_7 
REMARK    8  A    between atoms: C_6  and  C_8 
ROOT
HETATM    1 Cl   UNK     0      22.350 -25.470  24.799  0.00  0.00    -0.084 Cl
HETATM    2  N   UNK     0      20.741 -20.942  26.428  0.00  0.00    -0.260 NA
HETATM    3  C   UNK     0      22.551 -20.911  28.582  0.00  0.00     0.042 A 
HETATM    4  C   UNK     0      22.506 -22.003  27.678  0.00  0.00     0.019 A 
HETATM    5  C   UNK     0      21.665 -19.845  28.369  0.00  0.00     0.049 A 
HETATM    6  C   UNK     0      21.583 -21.976  26.613  0.00  0.00     0.070 A 
HETATM    7  C   UNK     0      23.370 -23.099  27.842  0.00  0.00     0.018 A 
HETATM    8  C   UNK     0      20.797 -19.908  27.298  0.00  0.00     0.119 A 
HETATM    9  C   UNK     0      21.558 -23.062  25.740  0.00  0.00     0.056 A 
HETATM   10  C   UNK     0      23.324 -24.171  26.955  0.00  0.00     0.025 A 
HETATM   11  C   UNK     0      22.417 -24.151  25.903  0.00  0.00     0.036 A 
ENDROOT
BRANCH   3  12
HETATM   12  N   UNK     0      23.428 -20.857  29.652  0.00  0.00    -0.385 N 
HETATM   13  HN  UNK     0      23.336 -21.531  30.399  0.00  0.00     0.160 HD
BRANCH  12  14
HETATM   14  C   UNK     0      24.570 -19.967  29.707  0.00  0.00     0.077 C 
HETATM   15  C   UNK     0      24.406 -19.040  30.907  0.00  0.00     0.032 C 
BRANCH  14  16
HETATM   16  C   UNK     0      25.869 -20.777  29.812  0.00  0.00     0.026 C 
BRANCH  16  17
HETATM   17  C   UNK     0      26.806 -20.545  28.620  0.00  0.00     0.032 C 
BRANCH  17  18
HETATM   18  C   UNK     0      26.016 -20.401  27.319  0.00  0.00     0.272 C 
BRANCH  18  19
HETATM   19  N   UNK     0      26.641 -21.185  26.258  0.00  0.00     0.087 N 
BRANCH  19  20
HETATM   20  C   UNK     0      27.535 -22.196  26.824  0.00  0.00     0.268 C 
HETATM   21  C   UNK     0      27.064 -23.600  26.479  0.00  0.00     0.037 C 
ENDBRANCH  19  20
BRANCH  19  22
HETATM   22  C   UNK     0      27.375 -20.313  25.340  0.00  0.00     0.268 C 
HETATM   23  C   UNK     0      28.859 -20.300  25.663  0.00  0.00     0.037 C 
ENDBRANCH  19  22
ENDBRANCH  18  19
ENDBRANCH  17  18
ENDBRANCH  16  17
ENDBRANCH  14  16
ENDBRANCH  12  14
ENDBRANCH   3  12
TORSDOF 8
ENDMDL
MODEL 2
REMARK VINA RESULT:    -5.497     40.659     43.470
REMARK INTER + INTRA:          -8.827
REMARK INTER:                  -7.655
REMARK INTRA:                  -1.172
REMARK UNBOUND:                -0.759
REMARK  8 active torsions:
REMARK  status: ('A' for Active; 'I' for Inactive)
REMARK    1  A    between atoms: N_2  and  C_8 
REMARK    2  A    between atoms: N_2  and  C_10 
REMARK    3  A    between atoms: N_2  and  C_11 
REMARK    4  A    between atoms: N_3  and  C_7 
REMARK    5  A    between atoms: N_3  and  C_12 
REMARK    6  A    between atoms: C_5  and  C_6 
REMARK    7  A    between atoms: C_5  and  C_7 
REMARK    8  A    between atoms: C_6  and  C_8 
ROOT
HETATM    1 Cl   UNK     0      -4.983  -3.345  -2.622  0.00  0.00    -0.084 Cl
HETATM    2  N   UNK     0      -7.525  -7.703  -3.170  0.00  0.00    -0.260 NA
HETATM    3  C   UNK     0      -5.562  -9.188  -1.806  0.00  0.00     0.042 A 
HETATM    4  C   UNK     0      -5.421  -7.790  -1.999  0.00  0.00     0.019 A 
HETATM    5  C   UNK     0      -6.712  -9.809  -2.316  0.00  0.00     0.049 A 
HETATM    6  C   UNK     0      -6.429  -7.086  -2.688  0.00  0.00     0.070 A 
HETATM    7  C   UNK     0      -4.290  -7.115  -1.510  0.00  0.00     0.018 A 
HETATM    8  C   UNK     0      -7.645  -9.036  -2.977  0.00  0.00     0.119 A 
HETATM    9  C   UNK     0      -6.266  -5.714  -2.865  0.00  0.00     0.056 A 
HETATM   10  C   UNK     0      -4.152  -5.743  -1.701  0.00  0.00     0.025 A 
HETATM   11  C   UNK     0      -5.141  -5.042  -2.379  0.00  0.00     0.036 A 
ENDROOT
BRANCH   3  12
HETATM   12  N   UNK     0      -4.622  -9.954  -1.139  0.00  0.00    -0.385 N 
HETATM   13  HN  UNK     0      -3.660  -9.938  -1.454  0.00  0.00     0.160 HD
BRANCH  12  14
HETATM   14  C   UNK     0      -4.901 -10.683   0.081  0.00  0.00     0.077 C 
HETATM   15  C   UNK     0      -3.606 -11.320   0.573  0.00  0.00     0.032 C 
BRANCH  14  16
HETATM   16  C   UNK     0      -5.486  -9.739   1.141  0.00  0.00     0.026 C 
BRANCH  16  17
HETATM   17  C   UNK     0      -6.659 -10.367   1.905  0.00  0.00     0.032 C 
BRANCH  17  18
HETATM   18  C   UNK     0      -7.541 -11.197   0.974  0.00  0.00     0.272 C 
BRANCH  18  19
HETATM   19  N   UNK     0      -7.857 -12.482   1.588  0.00  0.00     0.087 N 
BRANCH  19  20
HETATM   20  C   UNK     0      -9.076 -12.382   2.393  0.00  0.00     0.268 C 
HETATM   21  C   UNK     0     -10.172 -11.645   1.641  0.00  0.00     0.037 C 
ENDBRANCH  19  20
BRANCH  19  22
HETATM   22  C   UNK     0      -6.740 -12.947   2.412  0.00  0.00     0.268 C 
HETATM   23  C   UNK     0      -7.228 -13.476   3.750  0.00  0.00     0.037 C 
ENDBRANCH  19  22
ENDBRANCH  18  19
ENDBRANCH  17  18
ENDBRANCH  16  17
ENDBRANCH  14  16
ENDBRANCH  12  14
ENDBRANCH   3  12
TORSDOF 8
ENDMDL
MODEL 3
REMARK VINA RESULT:    -5.259      2.662      4.458
REMARK INTER + INTRA:          -8.477
REMARK INTER:                  -7.091
REMARK INTRA:                  -1.386
REMARK UNBOUND:                -0.759
REMARK  8 active torsions:
REMARK  status: ('A' for Active; 'I' for Inactive)
REMARK    1  A    between atoms: N_2  and  C_8 
REMARK    2  A    between atoms: N_2  and  C_10 
REMARK    3  A    between atoms: N_2  and  C_11 
REMARK    4  A    between atoms: N_3  and  C_7 
REMARK    5  A    between atoms: N_3  and  C_12 
REMARK    6  A    between atoms: C_5  and  C_6 
REMARK    7  A    between atoms: C_5  and  C_7 
REMARK    8  A    between atoms: C_6  and  C_8 
ROOT
HETATM    1 Cl   UNK     0      26.401 -22.091  24.995  0.00  0.00    -0.084 Cl
HETATM    2  N   UNK     0      21.857 -20.735  26.803  0.00  0.00    -0.260 NA
HETATM    3  C   UNK     0      22.966 -19.511  29.081  0.00  0.00     0.042 A 
HETATM    4  C   UNK     0      23.791 -20.127  28.105  0.00  0.00     0.019 A 
HETATM    5  C   UNK     0      21.579 -19.530  28.876  0.00  0.00     0.049 A 
HETATM    6  C   UNK     0      23.192 -20.728  26.979  0.00  0.00     0.070 A 
HETATM    7  C   UNK     0      25.188 -20.138  28.257  0.00  0.00     0.018 A 
HETATM    8  C   UNK     0      21.085 -20.143  27.742  0.00  0.00     0.119 A 
HETATM    9  C   UNK     0      24.024 -21.327  26.036  0.00  0.00     0.056 A 
HETATM   10  C   UNK     0      25.996 -20.744  27.299  0.00  0.00     0.025 A 
HETATM   11  C   UNK     0      25.413 -21.338  26.188  0.00  0.00     0.036 A 
ENDROOT
BRANCH   3  12
HETATM   12  N   UNK     0      23.473 -18.897  30.213  0.00  0.00    -0.385 N 
HETATM   13  HN  UNK     0      23.413 -17.891  30.297  0.00  0.00     0.160 HD
BRANCH  12  14
HETATM   14  C   UNK     0      23.970 -19.623  31.364  0.00  0.00     0.077 C 
HETATM   15  C   UNK     0      24.583 -18.625  32.341  0.00  0.00     0.032 C 
BRANCH  14  16
HETATM   16  C   UNK     0      22.831 -20.411  32.026  0.00  0.00     0.026 C 
BRANCH  16  17
HETATM   17  C   UNK     0      23.180 -21.892  32.228  0.00  0.00     0.032 C 
BRANCH  17  18
HETATM   18  C   UNK     0      24.487 -22.250  31.523  0.00  0.00     0.272 C 
BRANCH  18  19
HETATM   19  N   UNK     0      25.432 -22.829  32.473  0.00  0.00     0.087 N 
BRANCH  19  20
HETATM   20  C   UNK     0      24.839 -22.904  33.809  0.00  0.00     0.268 C 
HETATM   21  C   UNK     0      25.697 -22.179  34.832  0.00  0.00     0.037 C 
ENDBRANCH  19  20
BRANCH  19  22
HETATM   22  C   UNK     0      26.669 -22.047  32.509  0.00  0.00     0.268 C 
HETATM   23  C   UNK     0      27.083 -21.609  31.114  0.00  0.00     0.037 C 
ENDBRANCH  19  22
ENDBRANCH  18  19
ENDBRANCH  17  18
ENDBRANCH  16  17
ENDBRANCH  14  16
ENDBRANCH  12  14
ENDBRANCH   3  12
TORSDOF 8
ENDMDL
MODEL 4
REMARK VINA RESULT:    -5.245     40.784     43.539
REMARK INTER + INTRA:          -8.456
REMARK INTER:                  -7.573
REMARK INTRA:                  -0.884
REMARK UNBOUND:                -0.759
REMARK  8 active torsions:
REMARK  status: ('A' for Active; 'I' for Inactive)
REMARK    1  A    between atoms: N_2  and  C_8 
REMARK    2  A    between atoms: N_2  and  C_10 
REMARK    3  A    between atoms: N_2  and  C_11 
REMARK    4  A    between atoms: N_3  and  C_7 
REMARK    5  A    between atoms: N_3  and  C_12 
REMARK    6  A    between atoms: C_5  and  C_6 
REMARK    7  A    between atoms: C_5  and  C_7 
REMARK    8  A    between atoms: C_6  and  C_8 
ROOT
HETATM    1 Cl   UNK     0      -3.994  -1.967  -2.567  0.00  0.00    -0.084 Cl
HETATM    2  N   UNK     0      -7.070  -5.974  -3.055  0.00  0.00    -0.260 NA
HETATM    3  C   UNK     0      -5.177  -7.745  -1.960  0.00  0.00     0.042 A 
HETATM    4  C   UNK     0      -4.891  -6.363  -2.104  0.00  0.00     0.019 A 
HETATM    5  C   UNK     0      -6.435  -8.203  -2.381  0.00  0.00     0.049 A 
HETATM    6  C   UNK     0      -5.870  -5.512  -2.658  0.00  0.00     0.070 A 
HETATM    7  C   UNK     0      -3.648  -5.847  -1.699  0.00  0.00     0.018 A 
HETATM    8  C   UNK     0      -7.328  -7.294  -2.912  0.00  0.00     0.119 A 
HETATM    9  C   UNK     0      -5.563  -4.160  -2.788  0.00  0.00     0.056 A 
HETATM   10  C   UNK     0      -3.369  -4.491  -1.842  0.00  0.00     0.025 A 
HETATM   11  C   UNK     0      -4.328  -3.647  -2.386  0.00  0.00     0.036 A 
ENDROOT
BRANCH   3  12
HETATM   12  N   UNK     0      -4.275  -8.647  -1.425  0.00  0.00    -0.385 N 
HETATM   13  HN  UNK     0      -3.303  -8.381  -1.340  0.00  0.00     0.160 HD
BRANCH  12  14
HETATM   14  C   UNK     0      -4.661  -9.917  -0.846  0.00  0.00     0.077 C 
HETATM   15  C   UNK     0      -3.628 -10.967  -1.245  0.00  0.00     0.032 C 
BRANCH  14  16
HETATM   16  C   UNK     0      -4.759  -9.797   0.681  0.00  0.00     0.026 C 
BRANCH  16  17
HETATM   17  C   UNK     0      -6.172  -9.428   1.153  0.00  0.00     0.032 C 
BRANCH  17  18
HETATM   18  C   UNK     0      -6.389  -9.834   2.610  0.00  0.00     0.272 C 
BRANCH  18  19
HETATM   19  N   UNK     0      -7.191 -11.050   2.682  0.00  0.00     0.087 N 
BRANCH  19  20
HETATM   20  C   UNK     0      -6.338 -12.217   2.913  0.00  0.00     0.268 C 
HETATM   21  C   UNK     0      -6.965 -13.478   2.340  0.00  0.00     0.037 C 
ENDBRANCH  19  20
BRANCH  19  22
HETATM   22  C   UNK     0      -7.972 -11.226   1.457  0.00  0.00     0.268 C 
HETATM   23  C   UNK     0      -9.443 -10.929   1.695  0.00  0.00     0.037 C 
ENDBRANCH  19  22
ENDBRANCH  18  19
ENDBRANCH  17  18
ENDBRANCH  16  17
ENDBRANCH  14  16
ENDBRANCH  12  14
ENDBRANCH   3  12
TORSDOF 8
ENDMDL
MODEL 5
REMARK VINA RESULT:    -5.021      3.579      6.436
REMARK INTER + INTRA:          -8.129
REMARK INTER:                  -7.343
REMARK INTRA:                  -0.785
REMARK UNBOUND:                -0.759
REMARK  8 active torsions:
REMARK  status: ('A' for Active; 'I' for Inactive)
REMARK    1  A    between atoms: N_2  and  C_8 
REMARK    2  A    between atoms: N_2  and  C_10 
REMARK    3  A    between atoms: N_2  and  C_11 
REMARK    4  A    between atoms: N_3  and  C_7 
REMARK    5  A    between atoms: N_3  and  C_12 
REMARK    6  A    between atoms: C_5  and  C_6 
REMARK    7  A    between atoms: C_5  and  C_7 
REMARK    8  A    between atoms: C_6  and  C_8 
ROOT
HETATM    1 Cl   UNK     0      28.016 -20.649  27.000  0.00  0.00    -0.084 Cl
HETATM    2  N   UNK     0      22.974 -20.111  27.189  0.00  0.00    -0.260 NA
HETATM    3  C   UNK     0      22.548 -22.865  27.579  0.00  0.00     0.042 A 
HETATM    4  C   UNK     0      23.858 -22.338  27.441  0.00  0.00     0.019 A 
HETATM    5  C   UNK     0      21.470 -21.971  27.515  0.00  0.00     0.049 A 
HETATM    6  C   UNK     0      24.024 -20.951  27.247  0.00  0.00     0.070 A 
HETATM    7  C   UNK     0      24.977 -23.187  27.496  0.00  0.00     0.018 A 
HETATM    8  C   UNK     0      21.732 -20.629  27.323  0.00  0.00     0.119 A 
HETATM    9  C   UNK     0      25.320 -20.460  27.115  0.00  0.00     0.056 A 
HETATM   10  C   UNK     0      26.261 -22.668  27.360  0.00  0.00     0.025 A 
HETATM   11  C   UNK     0      26.433 -21.303  27.169  0.00  0.00     0.036 A 
ENDROOT
BRANCH   3  12
HETATM   12  N   UNK     0      22.297 -24.212  27.773  0.00  0.00    -0.385 N 
HETATM   13  HN  UNK     0      22.021 -24.535  28.691  0.00  0.00     0.160 HD
BRANCH  12  14
HETATM   14  C   UNK     0      22.273 -25.186  26.700  0.00  0.00     0.077 C 
HETATM   15  C   UNK     0      22.408 -26.579  27.306  0.00  0.00     0.032 C 
BRANCH  14  16
HETATM   16  C   UNK     0      20.972 -25.059  25.897  0.00  0.00     0.026 C 
BRANCH  16  17
HETATM   17  C   UNK     0      21.220 -24.715  24.423  0.00  0.00     0.032 C 
BRANCH  17  18
HETATM   18  C   UNK     0      21.679 -25.945  23.641  0.00  0.00     0.272 C 
BRANCH  18  19
HETATM   19  N   UNK     0      21.518 -25.723  22.208  0.00  0.00     0.087 N 
BRANCH  19  20
HETATM   20  C   UNK     0      20.161 -25.262  21.908  0.00  0.00     0.268 C 
HETATM   21  C   UNK     0      19.201 -26.433  21.774  0.00  0.00     0.037 C 
ENDBRANCH  19  20
BRANCH  19  22
HETATM   22  C   UNK     0      21.816 -26.945  21.461  0.00  0.00     0.268 C 
HETATM   23  C   UNK     0      22.554 -26.634  20.170  0.00  0.00     0.037 C 
ENDBRANCH  19  22
ENDBRANCH  18  19
ENDBRANCH  17  18
ENDBRANCH  16  17
ENDBRANCH  14  16
ENDBRANCH  12  14
ENDBRANCH   3  12
TORSDOF 8
ENDMDL
MODEL 6
REMARK VINA RESULT:    -5.000     13.562     16.574
REMARK INTER + INTRA:          -8.097
REMARK INTER:                  -6.579
REMARK INTRA:                  -1.518
REMARK UNBOUND:                -0.759
REMARK  8 active torsions:
REMARK  status: ('A' for Active; 'I' for Inactive)
REMARK    1  A    between atoms: N_2  and  C_8 
REMARK    2  A    between atoms: N_2  and  C_10 
REMARK    3  A    between atoms: N_2  and  C_11 
REMARK    4  A    between atoms: N_3  and  C_7 
REMARK    5  A    between atoms: N_3  and  C_12 
REMARK    6  A    between atoms: C_5  and  C_6 
REMARK    7  A    between atoms: C_5  and  C_7 
REMARK    8  A    between atoms: C_6  and  C_8 
ROOT
HETATM    1 Cl   UNK     0      12.767 -28.303  12.124  0.00  0.00    -0.084 Cl
HETATM    2  N   UNK     0      17.699 -29.492  12.257  0.00  0.00    -0.260 NA
HETATM    3  C   UNK     0      18.492 -26.800  12.463  0.00  0.00     0.042 A 
HETATM    4  C   UNK     0      17.121 -27.156  12.382  0.00  0.00     0.019 A 
HETATM    5  C   UNK     0      19.442 -27.832  12.437  0.00  0.00     0.049 A 
HETATM    6  C   UNK     0      16.770 -28.518  12.281  0.00  0.00     0.070 A 
HETATM    7  C   UNK     0      16.125 -26.165  12.404  0.00  0.00     0.018 A 
HETATM    8  C   UNK     0      19.001 -29.136  12.335  0.00  0.00     0.119 A 
HETATM    9  C   UNK     0      15.417 -28.841  12.202  0.00  0.00     0.056 A 
HETATM   10  C   UNK     0      14.781 -26.517  12.324  0.00  0.00     0.025 A 
HETATM   11  C   UNK     0      14.427 -27.856  12.224  0.00  0.00     0.036 A 
ENDROOT
BRANCH   3  12
HETATM   12  N   UNK     0      18.922 -25.489  12.567  0.00  0.00    -0.385 N 
HETATM   13  HN  UNK     0      18.568 -24.800  11.917  0.00  0.00     0.160 HD
BRANCH  12  14
HETATM   14  C   UNK     0      19.757 -25.003  13.647  0.00  0.00     0.077 C 
HETATM   15  C   UNK     0      20.552 -23.802  13.144  0.00  0.00     0.032 C 
BRANCH  14  16
HETATM   16  C   UNK     0      18.892 -24.622  14.856  0.00  0.00     0.026 C 
BRANCH  16  17
HETATM   17  C   UNK     0      18.586 -25.822  15.762  0.00  0.00     0.032 C 
BRANCH  17  18
HETATM   18  C   UNK     0      17.156 -25.757  16.296  0.00  0.00     0.272 C 
BRANCH  18  19
HETATM   19  N   UNK     0      16.974 -26.720  17.377  0.00  0.00     0.087 N 
BRANCH  19  20
HETATM   20  C   UNK     0      18.089 -26.649  18.323  0.00  0.00     0.268 C 
HETATM   21  C   UNK     0      18.447 -28.027  18.855  0.00  0.00     0.037 C 
ENDBRANCH  19  20
BRANCH  19  22
HETATM   22  C   UNK     0      16.848 -28.077  16.841  0.00  0.00     0.268 C 
HETATM   23  C   UNK     0      15.683 -28.178  15.871  0.00  0.00     0.037 C 
ENDBRANCH  19  22
ENDBRANCH  18  19
ENDBRANCH  17  18
ENDBRANCH  16  17
ENDBRANCH  14  16
ENDBRANCH  12  14
ENDBRANCH   3  12
TORSDOF 8
ENDMDL
MODEL 7
REMARK VINA RESULT:    -4.997     13.482     15.882
REMARK INTER + INTRA:          -8.092
REMARK INTER:                  -6.964
REMARK INTRA:                  -1.128
REMARK UNBOUND:                -0.759
REMARK  8 active torsions:
REMARK  status: ('A' for Active; 'I' for Inactive)
REMARK    1  A    between atoms: N_2  and  C_8 
REMARK    2  A    between atoms: N_2  and  C_10 
REMARK    3  A    between atoms: N_2  and  C_11 
REMARK    4  A    between atoms: N_3  and  C_7 
REMARK    5  A    between atoms: N_3  and  C_12 
REMARK    6  A    between atoms: C_5  and  C_6 
REMARK    7  A    between atoms: C_5  and  C_7 
REMARK    8  A    between atoms: C_6  and  C_8 
ROOT
HETATM    1 Cl   UNK     0      17.394 -17.458  41.955  0.00  0.00    -0.084 Cl
HETATM    2  N   UNK     0      18.016 -14.223  38.094  0.00  0.00    -0.260 NA
HETATM    3  C   UNK     0      15.872 -15.321  36.639  0.00  0.00     0.042 A 
HETATM    4  C   UNK     0      16.234 -15.834  37.911  0.00  0.00     0.019 A 
HETATM    5  C   UNK     0      16.617 -14.248  36.128  0.00  0.00     0.049 A 
HETATM    6  C   UNK     0      17.315 -15.253  38.605  0.00  0.00     0.070 A 
HETATM    7  C   UNK     0      15.524 -16.909  38.473  0.00  0.00     0.018 A 
HETATM    8  C   UNK     0      17.659 -13.745  36.881  0.00  0.00     0.119 A 
HETATM    9  C   UNK     0      17.649 -15.776  39.852  0.00  0.00     0.056 A 
HETATM   10  C   UNK     0      15.880 -17.412  39.721  0.00  0.00     0.025 A 
HETATM   11  C   UNK     0      16.944 -16.844  40.411  0.00  0.00     0.036 A 
ENDROOT
BRANCH   3  12
HETATM   12  N   UNK     0      14.824 -15.831  35.893  0.00  0.00    -0.385 N 
HETATM   13  HN  UNK     0      14.138 -16.421  36.345  0.00  0.00     0.160 HD
BRANCH  12  14
HETATM   14  C   UNK     0      14.567 -15.462  34.516  0.00  0.00     0.077 C 
HETATM   15  C   UNK     0      14.367 -16.735  33.700  0.00  0.00     0.032 C 
BRANCH  14  16
HETATM   16  C   UNK     0      13.331 -14.556  34.432  0.00  0.00     0.026 C 
BRANCH  16  17
HETATM   17  C   UNK     0      13.487 -13.443  33.388  0.00  0.00     0.032 C 
BRANCH  17  18
HETATM   18  C   UNK     0      13.537 -12.068  34.053  0.00  0.00     0.272 C 
BRANCH  18  19
HETATM   19  N   UNK     0      13.196 -12.177  35.468  0.00  0.00     0.087 N 
BRANCH  19  20
HETATM   20  C   UNK     0      11.878 -11.596  35.726  0.00  0.00     0.268 C 
HETATM   21  C   UNK     0      11.347 -12.022  37.085  0.00  0.00     0.037 C 
ENDBRANCH  19  20
BRANCH  19  22
HETATM   22  C   UNK     0      14.211 -11.521  36.293  0.00  0.00     0.268 C 
HETATM   23  C   UNK     0      15.239 -10.804  35.434  0.00  0.00     0.037 C 
ENDBRANCH  19  22
ENDBRANCH  18  19
ENDBRANCH  17  18
ENDBRANCH  16  17
ENDBRANCH  14  16
ENDBRANCH  12  14
ENDBRANCH   3  12
TORSDOF 8
ENDMDL
MODEL 8
REMARK VINA RESULT:    -4.939      3.429      6.419
REMARK INTER + INTRA:          -8.008
REMARK INTER:                  -7.249
REMARK INTRA:                  -0.759
REMARK UNBOUND:                -0.759
REMARK  8 active torsions:
REMARK  status: ('A' for Active; 'I' for Inactive)
REMARK    1  A    between atoms: N_2  and  C_8 
REMARK    2  A    between atoms: N_2  and  C_10 
REMARK    3  A    between atoms: N_2  and  C_11 
REMARK    4  A    between atoms: N_3  and  C_7 
REMARK    5  A    between atoms: N_3  and  C_12 
REMARK    6  A    between atoms: C_5  and  C_6 
REMARK    7  A    between atoms: C_5  and  C_7 
REMARK    8  A    between atoms: C_6  and  C_8 
ROOT
HETATM    1 Cl   UNK     0      28.175 -20.064  25.157  0.00  0.00    -0.084 Cl
HETATM    2  N   UNK     0      24.877 -20.158  29.012  0.00  0.00    -0.260 NA
HETATM    3  C   UNK     0      23.528 -22.408  27.995  0.00  0.00     0.042 A 
HETATM    4  C   UNK     0      24.640 -21.850  27.314  0.00  0.00     0.019 A 
HETATM    5  C   UNK     0      23.120 -21.803  29.194  0.00  0.00     0.049 A 
HETATM    6  C   UNK     0      25.285 -20.722  27.861  0.00  0.00     0.070 A 
HETATM    7  C   UNK     0      25.093 -22.413  26.109  0.00  0.00     0.018 A 
HETATM    8  C   UNK     0      23.815 -20.702  29.650  0.00  0.00     0.119 A 
HETATM    9  C   UNK     0      26.374 -20.193  27.171  0.00  0.00     0.056 A 
HETATM   10  C   UNK     0      26.183 -21.864  25.441  0.00  0.00     0.025 A 
HETATM   11  C   UNK     0      26.825 -20.753  25.973  0.00  0.00     0.036 A 
ENDROOT
BRANCH   3  12
HETATM   12  N   UNK     0      22.839 -23.514  27.530  0.00  0.00    -0.385 N 
HETATM   13  HN  UNK     0      23.227 -24.436  27.680  0.00  0.00     0.160 HD
BRANCH  12  14
HETATM   14  C   UNK     0      21.513 -23.447  26.950  0.00  0.00     0.077 C 
HETATM   15  C   UNK     0      21.500 -22.346  25.894  0.00  0.00     0.032 C 
BRANCH  14  16
HETATM   16  C   UNK     0      21.133 -24.801  26.336  0.00  0.00     0.026 C 
BRANCH  16  17
HETATM   17  C   UNK     0      21.109 -24.767  24.803  0.00  0.00     0.032 C 
BRANCH  17  18
HETATM   18  C   UNK     0      22.066 -25.803  24.214  0.00  0.00     0.272 C 
BRANCH  18  19
HETATM   19  N   UNK     0      21.361 -26.668  23.275  0.00  0.00     0.087 N 
BRANCH  19  20
HETATM   20  C   UNK     0      21.788 -28.059  23.436  0.00  0.00     0.268 C 
HETATM   21  C   UNK     0      20.685 -29.023  23.031  0.00  0.00     0.037 C 
ENDBRANCH  19  20
BRANCH  19  22
HETATM   22  C   UNK     0      21.584 -26.224  21.899  0.00  0.00     0.268 C 
HETATM   23  C   UNK     0      20.299 -25.707  21.274  0.00  0.00     0.037 C 
ENDBRANCH  19  22
ENDBRANCH  18  19
ENDBRANCH  17  18
ENDBRANCH  16  17
ENDBRANCH  14  16
ENDBRANCH  12  14
ENDBRANCH   3  12
TORSDOF 8
ENDMDL
MODEL 9
REMARK VINA RESULT:    -4.900     41.051     43.901
REMARK INTER + INTRA:          -7.951
REMARK INTER:                  -6.417
REMARK INTRA:                  -1.534
REMARK UNBOUND:                -0.759
REMARK  8 active torsions:
REMARK  status: ('A' for Active; 'I' for Inactive)
REMARK    1  A    between atoms: N_2  and  C_8 
REMARK    2  A    between atoms: N_2  and  C_10 
REMARK    3  A    between atoms: N_2  and  C_11 
REMARK    4  A    between atoms: N_3  and  C_7 
REMARK    5  A    between atoms: N_3  and  C_12 
REMARK    6  A    between atoms: C_5  and  C_6 
REMARK    7  A    between atoms: C_5  and  C_7 
REMARK    8  A    between atoms: C_6  and  C_8 
ROOT
HETATM    1 Cl   UNK     0     -11.056  -7.531  -2.525  0.00  0.00    -0.084 Cl
HETATM    2  N   UNK     0      -8.618  -8.602   1.794  0.00  0.00    -0.260 NA
HETATM    3  C   UNK     0      -6.687 -10.176   0.485  0.00  0.00     0.042 A 
HETATM    4  C   UNK     0      -7.731  -9.544  -0.238  0.00  0.00     0.019 A 
HETATM    5  C   UNK     0      -6.646  -9.992   1.875  0.00  0.00     0.049 A 
HETATM    6  C   UNK     0      -8.677  -8.765   0.459  0.00  0.00     0.070 A 
HETATM    7  C   UNK     0      -7.823  -9.693  -1.633  0.00  0.00     0.018 A 
HETATM    8  C   UNK     0      -7.616  -9.211   2.469  0.00  0.00     0.119 A 
HETATM    9  C   UNK     0      -9.692  -8.156  -0.275  0.00  0.00     0.056 A 
HETATM   10  C   UNK     0      -8.848  -9.073  -2.341  0.00  0.00     0.025 A 
HETATM   11  C   UNK     0      -9.783  -8.303  -1.661  0.00  0.00     0.036 A 
ENDROOT
BRANCH   3  12
HETATM   12  N   UNK     0      -5.719 -10.956  -0.121  0.00  0.00    -0.385 N 
HETATM   13  HN  UNK     0      -6.003 -11.716  -0.725  0.00  0.00     0.160 HD
BRANCH  12  14
HETATM   14  C   UNK     0      -4.301 -10.668  -0.054  0.00  0.00     0.077 C 
HETATM   15  C   UNK     0      -3.530 -11.972  -0.236  0.00  0.00     0.032 C 
BRANCH  14  16
HETATM   16  C   UNK     0      -3.915  -9.647  -1.133  0.00  0.00     0.026 C 
BRANCH  16  17
HETATM   17  C   UNK     0      -3.915  -8.206  -0.607  0.00  0.00     0.032 C 
BRANCH  17  18
HETATM   18  C   UNK     0      -4.949  -7.352  -1.339  0.00  0.00     0.272 C 
BRANCH  18  19
HETATM   19  N   UNK     0      -4.500  -7.065  -2.697  0.00  0.00     0.087 N 
BRANCH  19  20
HETATM   20  C   UNK     0      -3.972  -5.702  -2.787  0.00  0.00     0.268 C 
HETATM   21  C   UNK     0      -5.058  -4.674  -2.516  0.00  0.00     0.037 C 
ENDBRANCH  19  20
BRANCH  19  22
HETATM   22  C   UNK     0      -5.594  -7.250  -3.651  0.00  0.00     0.268 C 
HETATM   23  C   UNK     0      -5.416  -8.531  -4.448  0.00  0.00     0.037 C 
ENDBRANCH  19  22
ENDBRANCH  18  19
ENDBRANCH  17  18
ENDBRANCH  16  17
ENDBRANCH  14  16
ENDBRANCH  12  14
ENDBRANCH   3  12
TORSDOF 8
ENDMDL
